src/powermodelconverter/data/exports/minimal_radial.powermodels.json
{
    "ac": true,
    "baseMVA": 1.0,
    "branch": {
        "1": {
            "angmax": 1.0471975511965976,
            "angmin": -1.0471975511965976,
            "b_fr": 5.3407075111026494e-05,
            "b_to": 5.3407075111026494e-05,
            "br_r": 0.0012,
            "br_status": 1,
            "br_x": 0.0009,
            "f_bus": 2,
            "g_fr": 0.0,
            "g_to": 0.0,
            "index": 1,
            "rate_a": 0.0,
            "rate_b": 0.0,
            "rate_c": 0.0,
            "shift": 0.0,
            "t_bus": 3,
            "tap": 1.0,
            "transformer": false
        },
        "2": {
            "angmax": 1.0471975511965976,
            "angmin": -1.0471975511965976,
            "b_fr": -0.0,
            "b_to": -0.0,
            "br_r": 0.001,
            "br_status": 1,
            "br_x": 0.005916079783099617,
            "f_bus": 1,
            "g_fr": 0.0,
            "g_to": 0.0,
            "index": 2,
            "rate_a": 0.0,
            "rate_b": 0.0,
            "rate_c": 0.0,
            "shift": 0.0,
            "t_bus": 2,
            "tap": 1.0,
            "transformer": true
        }
    },
    "bus": {
        "1": {
            "base_kv": 20.0,
            "bus_i": 1,
            "bus_type": 3,
            "index": 1,
            "va": 0.0,
            "vm": 1.0,
            "vmax": 1.00000001,
            "vmin": 0.99999999,
            "zone": 1
        },
        "2": {
            "base_kv": 10.0,
            "bus_i": 2,
            "bus_type": 1,
            "index": 2,
            "va": 0.0,
            "vm": 1.0,
            "vmax": 2.0,
            "vmin": 0.0,
            "zone": 1
        },
        "3": {
            "base_kv": 10.0,
            "bus_i": 3,
            "bus_type": 1,
            "index": 3,
            "va": 0.0,
            "vm": 1.0,
            "vmax": 2.0,
            "vmin": 0.0,
            "zone": 1
        }
    },
    "correct_pm_network_data": true,
    "dcline": {},
    "gen": {
        "1": {
            "cost": [
                0,
                1.0,
                0.0
            ],
            "gen_bus": 1,
            "gen_status": 1,
            "index": 1,
            "model": 2,
            "ncost": 3,
            "pg": 0.0,
            "pmax": 1000000000.0,
            "pmin": -1000000000.0,
            "qg": 0.0,
            "qmax": 1000000000.0,
            "qmin": -1000000000.0,
            "shutdown": 0.0,
            "startup": 0.0,
            "vg": 1.0
        }
    },
    "load": {
        "1": {
            "index": 1,
            "load_bus": 3,
            "pd": 1.5,
            "qd": 0.5,
            "status": 1
        }
    },
    "name": "minimal_radial",
    "ne_branch": {},
    "per_unit": true,
    "pm_log_level": 0,
    "pm_mip_solver": "cbc",
    "pm_mip_time_limit": Infinity,
    "pm_model": "ACPPowerModel",
    "pm_nl_solver": "ipopt",
    "pm_nl_time_limit": Infinity,
    "pm_solver": "ipopt",
    "pm_time_limit": Infinity,
    "pm_tol": 1e-08,
    "shunt": {},
    "silence": true,
    "source_version": "2.0.0",
    "sourcetype": "matpower",
    "storage": {},
    "switch": {},
    "user_defined_params": {}
}